100
Structure data generated using scikit-nano version 0.2.26
  C     6.44816373     2.09513540    -2.45951215
  C     5.87165274     3.39000029    -2.45951215
  C     3.98518435     5.48513569    -2.45951215
  C     2.75767467     6.19383873    -2.45951215
  C     0.00000000     6.78000058    -2.45951215
  C    -1.40964138     6.63184130    -2.45951215
  C    -3.98518435     5.48513569    -2.45951215
  C    -5.03852234     4.53670590    -2.45951215
  C    -6.44816373     2.09513540    -2.45951215
  C    -6.74285902     0.70870304    -2.45951215
  C    -6.44816373    -2.09513540    -2.45951215
  C    -5.87165274    -3.39000029    -2.45951215
  C    -3.98518435    -5.48513569    -2.45951215
  C    -2.75767467    -6.19383873    -2.45951215
  C     0.00000000    -6.78000058    -2.45951215
  C     1.40964138    -6.63184130    -2.45951215
  C     3.98518435    -5.48513569    -2.45951215
  C     5.03852234    -4.53670590    -2.45951215
  C     6.44816373    -2.09513540    -2.45951215
  C     6.74285902    -0.70870304    -2.45951215
  C     6.44816373     2.09513540     0.00000000
  C     5.87165274     3.39000029     0.00000000
  C     5.48513569     3.98518435    -1.22975607
  C     4.53670590     5.03852234    -1.22975607
  C     3.98518435     5.48513569     0.00000000
  C     2.75767467     6.19383873     0.00000000
  C     2.09513540     6.44816373    -1.22975607
  C     0.70870304     6.74285902    -1.22975607
  C     0.00000000     6.78000058     0.00000000
  C    -1.40964138     6.63184130     0.00000000
  C    -2.09513540     6.44816373    -1.22975607
  C    -3.39000029     5.87165274    -1.22975607
  C    -3.98518435     5.48513569     0.00000000
  C    -5.03852234     4.53670590     0.00000000
  C    -5.48513569     3.98518435    -1.22975607
  C    -6.19383873     2.75767467    -1.22975607
  C    -6.44816373     2.09513540     0.00000000
  C    -6.74285902     0.70870304     0.00000000
  C    -6.78000058     0.00000000    -1.22975607
  C    -6.63184130    -1.40964138    -1.22975607
  C    -6.44816373    -2.09513540     0.00000000
  C    -5.87165274    -3.39000029     0.00000000
  C    -5.48513569    -3.98518435    -1.22975607
  C    -4.53670590    -5.03852234    -1.22975607
  C    -3.98518435    -5.48513569     0.00000000
  C    -2.75767467    -6.19383873     0.00000000
  C    -2.09513540    -6.44816373    -1.22975607
  C    -0.70870304    -6.74285902    -1.22975607
  C     0.00000000    -6.78000058     0.00000000
  C     1.40964138    -6.63184130     0.00000000
  C     2.09513540    -6.44816373    -1.22975607
  C     3.39000029    -5.87165274    -1.22975607
  C     3.98518435    -5.48513569     0.00000000
  C     5.03852234    -4.53670590     0.00000000
  C     5.48513569    -3.98518435    -1.22975607
  C     6.19383873    -2.75767467    -1.22975607
  C     6.44816373    -2.09513540     0.00000000
  C     6.74285902    -0.70870304     0.00000000
  C     6.78000058     0.00000000    -1.22975607
  C     6.63184130     1.40964138    -1.22975607
  C     6.44816373     2.09513540     2.45951215
  C     5.87165274     3.39000029     2.45951215
  C     5.48513569     3.98518435     1.22975607
  C     4.53670590     5.03852234     1.22975607
  C     3.98518435     5.48513569     2.45951215
  C     2.75767467     6.19383873     2.45951215
  C     2.09513540     6.44816373     1.22975607
  C     0.70870304     6.74285902     1.22975607
  C     0.00000000     6.78000058     2.45951215
  C    -1.40964138     6.63184130     2.45951215
  C    -2.09513540     6.44816373     1.22975607
  C    -3.39000029     5.87165274     1.22975607
  C    -3.98518435     5.48513569     2.45951215
  C    -5.03852234     4.53670590     2.45951215
  C    -5.48513569     3.98518435     1.22975607
  C    -6.19383873     2.75767467     1.22975607
  C    -6.44816373     2.09513540     2.45951215
  C    -6.74285902     0.70870304     2.45951215
  C    -6.78000058     0.00000000     1.22975607
  C    -6.63184130    -1.40964138     1.22975607
  C    -6.44816373    -2.09513540     2.45951215
  C    -5.87165274    -3.39000029     2.45951215
  C    -5.48513569    -3.98518435     1.22975607
  C    -4.53670590    -5.03852234     1.22975607
  C    -3.98518435    -5.48513569     2.45951215
  C    -2.75767467    -6.19383873     2.45951215
  C    -2.09513540    -6.44816373     1.22975607
  C    -0.70870304    -6.74285902     1.22975607
  C     0.00000000    -6.78000058     2.45951215
  C     1.40964138    -6.63184130     2.45951215
  C     2.09513540    -6.44816373     1.22975607
  C     3.39000029    -5.87165274     1.22975607
  C     3.98518435    -5.48513569     2.45951215
  C     5.03852234    -4.53670590     2.45951215
  C     5.48513569    -3.98518435     1.22975607
  C     6.19383873    -2.75767467     1.22975607
  C     6.44816373    -2.09513540     2.45951215
  C     6.74285902    -0.70870304     2.45951215
  C     6.78000058     0.00000000     1.22975607
  C     6.63184130     1.40964138     1.22975607
