764
Structure data generated using scikit-nano version 0.2.26
  C    13.39231452     2.09992022    -4.30414626
  C    13.09721480     3.48825524    -4.30414626
  C    12.08130898     6.13478039    -4.30414626
  C    11.37163335     7.36397463    -4.30414626
  C     9.58762825     9.56703746    -4.30414626
  C     8.53284471    10.51676882    -4.30414626
  C     6.15537119    12.06071819    -4.30414626
  C     4.85872929    12.63802035    -4.30414626
  C     2.12051101    13.37172373    -4.30414626
  C     0.70893511    13.52008633    -4.30414626
  C    -2.12199204    13.37172373    -4.30414626
  C    -3.51032706    13.07662401    -4.30414626
  C    -6.15685221    12.06071819    -4.30414626
  C    -7.38604646    11.35104256    -4.30414626
  C    -9.58910928     9.56703746    -4.30414626
  C   -10.53884065     8.51225392    -4.30414626
  C   -12.08279001     6.13478039    -4.30414626
  C   -12.66009217     4.83813850    -4.30414626
  C   -13.39379555     2.09992022    -4.30414626
  C   -13.54215816     0.68834432    -4.30414626
  C   -13.39379555    -2.14258283    -4.30414626
  C   -13.09869583    -3.53091786    -4.30414626
  C   -12.08279001    -6.17744301    -4.30414626
  C   -11.37311438    -7.40663725    -4.30414626
  C    -9.58910928    -9.60970008    -4.30414626
  C    -8.53432574   -10.55943144    -4.30414626
  C    -6.15685221   -12.10338080    -4.30414626
  C    -4.86021032   -12.68068297    -4.30414626
  C    -2.12199204   -13.41438634    -4.30414626
  C    -0.71041614   -13.56274895    -4.30414626
  C     2.12051101   -13.41438634    -4.30414626
  C     3.50884604   -13.11928663    -4.30414626
  C     6.15537119   -12.10338080    -4.30414626
  C     7.38456543   -11.39370518    -4.30414626
  C     9.58762825    -9.60970008    -4.30414626
  C    10.53735962    -8.55491654    -4.30414626
  C    12.08130898    -6.17744301    -4.30414626
  C    12.65861114    -4.88080112    -4.30414626
  C    13.39231452    -2.14258283    -4.30414626
  C    13.54067713    -0.73100694    -4.30414626
  C    13.39231452     2.09992022    -1.84463411
  C    13.09721480     3.48825524    -1.84463411
  C    12.89558694     4.16893949    -3.07439018
  C    12.38693694     5.49401804    -3.07439018
  C    12.08130898     6.13478039    -1.84463411
  C    11.37163335     7.36397463    -1.84463411
  C    10.96953086     7.94903739    -3.07439018
  C    10.07630418     9.05208048    -3.07439018
  C     9.58762825     9.56703746    -1.84463411
  C     8.53284471    10.51676882    -1.84463411
  C     7.96962818    10.94894007    -3.07439018
  C     6.77926006    11.72197416    -3.07439018
  C     6.15537119    12.06071819    -1.84463411
  C     4.85872929    12.63802035    -1.84463411
  C     4.18953029    12.87499615    -3.07439018
  C     2.81854225    13.24235128    -3.07439018
  C     2.12051101    13.37172373    -1.84463411
  C     0.70893511    13.52008633    -1.84463411
  C    -0.00074051    13.53866984    -3.07439018
  C    -1.41814660    13.46438674    -3.07439018
  C    -2.12199204    13.37172373    -1.84463411
  C    -3.51032706    13.07662401    -1.84463411
  C    -4.19101131    12.87499615    -3.07439018
  C    -5.51608986    12.36634615    -3.07439018
  C    -6.15685221    12.06071819    -1.84463411
  C    -7.38604646    11.35104256    -1.84463411
  C    -7.97110921    10.94894007    -3.07439018
  C    -9.07415231    10.05571338    -3.07439018
  C    -9.58910928     9.56703746    -1.84463411
  C   -10.53884065     8.51225392    -1.84463411
  C   -10.97101189     7.94903739    -3.07439018
  C   -11.74404599     6.75866927    -3.07439018
  C   -12.08279001     6.13478039    -1.84463411
  C   -12.66009217     4.83813850    -1.84463411
  C   -12.89706797     4.16893949    -3.07439018
  C   -13.26442311     2.79795146    -3.07439018
  C   -13.39379555     2.09992022    -1.84463411
  C   -13.54215816     0.68834432    -1.84463411
  C   -13.56074167    -0.02133131    -3.07439018
  C   -13.48645856    -1.43873739    -3.07439018
  C   -13.39379555    -2.14258283    -1.84463411
  C   -13.09869583    -3.53091786    -1.84463411
  C   -12.89706797    -4.21160211    -3.07439018
  C   -12.38841797    -5.53668066    -3.07439018
  C   -12.08279001    -6.17744301    -1.84463411
  C   -11.37311438    -7.40663725    -1.84463411
  C   -10.97101189    -7.99170001    -3.07439018
  C   -10.07778520    -9.09474310    -3.07439018
  C    -9.58910928    -9.60970008    -1.84463411
  C    -8.53432574   -10.55943144    -1.84463411
  C    -7.97110921   -10.99160268    -3.07439018
  C    -6.78074109   -11.76463678    -3.07439018
  C    -6.15685221   -12.10338080    -1.84463411
  C    -4.86021032   -12.68068297    -1.84463411
  C    -4.19101131   -12.91765876    -3.07439018
  C    -2.82002328   -13.28501390    -3.07439018
  C    -2.12199204   -13.41438634    -1.84463411
  C    -0.71041614   -13.56274895    -1.84463411
  C    -0.00074051   -13.58133246    -3.07439018
  C     1.41666557   -13.50704935    -3.07439018
  C     2.12051101   -13.41438634    -1.84463411
  C     3.50884604   -13.11928663    -1.84463411
  C     4.18953029   -12.91765876    -3.07439018
  C     5.51460883   -12.40900877    -3.07439018
  C     6.15537119   -12.10338080    -1.84463411
  C     7.38456543   -11.39370518    -1.84463411
  C     7.96962818   -10.99160268    -3.07439018
  C     9.07267128   -10.09837600    -3.07439018
  C     9.58762825    -9.60970008    -1.84463411
  C    10.53735962    -8.55491654    -1.84463411
  C    10.96953086    -7.99170001    -3.07439018
  C    11.74256496    -6.80133188    -3.07439018
  C    12.08130898    -6.17744301    -1.84463411
  C    12.65861114    -4.88080112    -1.84463411
  C    12.89558694    -4.21160211    -3.07439018
  C    13.26294208    -2.84061408    -3.07439018
  C    13.39231452    -2.14258283    -1.84463411
  C    13.54067713    -0.73100694    -1.84463411
  C    13.55926064    -0.02133131    -3.07439018
  C    13.48497753     1.39607477    -3.07439018
  C    13.39231452     2.09992022     0.61487804
  C    13.09721480     3.48825524     0.61487804
  C    12.89558694     4.16893949    -0.61487804
  C    12.38693694     5.49401804    -0.61487804
  C    12.08130898     6.13478039     0.61487804
  C    11.37163335     7.36397463     0.61487804
  C    10.96953086     7.94903739    -0.61487804
  C    10.07630418     9.05208048    -0.61487804
  C     9.58762825     9.56703746     0.61487804
  C     8.53284471    10.51676882     0.61487804
  C     7.96962818    10.94894007    -0.61487804
  C     6.77926006    11.72197416    -0.61487804
  C     6.15537119    12.06071819     0.61487804
  C     4.85872929    12.63802035     0.61487804
  C     4.18953029    12.87499615    -0.61487804
  C     2.81854225    13.24235128    -0.61487804
  C     2.12051101    13.37172373     0.61487804
  C     0.70893511    13.52008633     0.61487804
  C    -0.00074051    13.53866984    -0.61487804
  C    -1.41814660    13.46438674    -0.61487804
  C    -2.12199204    13.37172373     0.61487804
  C    -3.51032706    13.07662401     0.61487804
  C    -4.19101131    12.87499615    -0.61487804
  C    -5.51608986    12.36634615    -0.61487804
  C    -6.15685221    12.06071819     0.61487804
  C    -7.38604646    11.35104256     0.61487804
  C    -7.97110921    10.94894007    -0.61487804
  C    -9.07415231    10.05571338    -0.61487804
  C    -9.58910928     9.56703746     0.61487804
  C   -10.53884065     8.51225392     0.61487804
  C   -10.97101189     7.94903739    -0.61487804
  C   -11.74404599     6.75866927    -0.61487804
  C   -12.08279001     6.13478039     0.61487804
  C   -12.66009217     4.83813850     0.61487804
  C   -12.89706797     4.16893949    -0.61487804
  C   -13.26442311     2.79795146    -0.61487804
  C   -13.39379555     2.09992022     0.61487804
  C   -13.54215816     0.68834432     0.61487804
  C   -13.56074167    -0.02133131    -0.61487804
  C   -13.48645856    -1.43873739    -0.61487804
  C   -13.39379555    -2.14258283     0.61487804
  C   -13.09869583    -3.53091786     0.61487804
  C   -12.89706797    -4.21160211    -0.61487804
  C   -12.38841797    -5.53668066    -0.61487804
  C   -12.08279001    -6.17744301     0.61487804
  C   -11.37311438    -7.40663725     0.61487804
  C   -10.97101189    -7.99170001    -0.61487804
  C   -10.07778520    -9.09474310    -0.61487804
  C    -9.58910928    -9.60970008     0.61487804
  C    -8.53432574   -10.55943144     0.61487804
  C    -7.97110921   -10.99160268    -0.61487804
  C    -6.78074109   -11.76463678    -0.61487804
  C    -6.15685221   -12.10338080     0.61487804
  C    -4.86021032   -12.68068297     0.61487804
  C    -4.19101131   -12.91765876    -0.61487804
  C    -2.82002328   -13.28501390    -0.61487804
  C    -2.12199204   -13.41438634     0.61487804
  C    -0.71041614   -13.56274895     0.61487804
  C    -0.00074051   -13.58133246    -0.61487804
  C     1.41666557   -13.50704935    -0.61487804
  C     2.12051101   -13.41438634     0.61487804
  C     3.50884604   -13.11928663     0.61487804
  C     4.18953029   -12.91765876    -0.61487804
  C     5.51460883   -12.40900877    -0.61487804
  C     6.15537119   -12.10338080     0.61487804
  C     7.38456543   -11.39370518     0.61487804
  C     7.96962818   -10.99160268    -0.61487804
  C     9.07267128   -10.09837600    -0.61487804
  C     9.58762825    -9.60970008     0.61487804
  C    10.53735962    -8.55491654     0.61487804
  C    10.96953086    -7.99170001    -0.61487804
  C    11.74256496    -6.80133188    -0.61487804
  C    12.08130898    -6.17744301     0.61487804
  C    12.65861114    -4.88080112     0.61487804
  C    12.89558694    -4.21160211    -0.61487804
  C    13.26294208    -2.84061408    -0.61487804
  C    13.39231452    -2.14258283     0.61487804
  C    13.54067713    -0.73100694     0.61487804
  C    13.55926064    -0.02133131    -0.61487804
  C    13.48497753     1.39607477    -0.61487804
  C    13.39231452     2.09992022     3.07439018
  C    13.09721480     3.48825524     3.07439018
  C    12.89558694     4.16893949     1.84463411
  C    12.38693694     5.49401804     1.84463411
  C    12.08130898     6.13478039     3.07439018
  C    11.37163335     7.36397463     3.07439018
  C    10.96953086     7.94903739     1.84463411
  C    10.07630418     9.05208048     1.84463411
  C     9.58762825     9.56703746     3.07439018
  C     8.53284471    10.51676882     3.07439018
  C     7.96962818    10.94894007     1.84463411
  C     6.77926006    11.72197416     1.84463411
  C     6.15537119    12.06071819     3.07439018
  C     4.85872929    12.63802035     3.07439018
  C     4.18953029    12.87499615     1.84463411
  C     2.81854225    13.24235128     1.84463411
  C     2.12051101    13.37172373     3.07439018
  C     0.70893511    13.52008633     3.07439018
  C    -0.00074051    13.53866984     1.84463411
  C    -1.41814660    13.46438674     1.84463411
  C    -2.12199204    13.37172373     3.07439018
  C    -3.51032706    13.07662401     3.07439018
  C    -4.19101131    12.87499615     1.84463411
  C    -5.51608986    12.36634615     1.84463411
  C    -6.15685221    12.06071819     3.07439018
  C    -7.38604646    11.35104256     3.07439018
  C    -7.97110921    10.94894007     1.84463411
  C    -9.07415231    10.05571338     1.84463411
  C    -9.58910928     9.56703746     3.07439018
  C   -10.53884065     8.51225392     3.07439018
  C   -10.97101189     7.94903739     1.84463411
  C   -11.74404599     6.75866927     1.84463411
  C   -12.08279001     6.13478039     3.07439018
  C   -12.66009217     4.83813850     3.07439018
  C   -12.89706797     4.16893949     1.84463411
  C   -13.26442311     2.79795146     1.84463411
  C   -13.39379555     2.09992022     3.07439018
  C   -13.54215816     0.68834432     3.07439018
  C   -13.56074167    -0.02133131     1.84463411
  C   -13.48645856    -1.43873739     1.84463411
  C   -13.39379555    -2.14258283     3.07439018
  C   -13.09869583    -3.53091786     3.07439018
  C   -12.89706797    -4.21160211     1.84463411
  C   -12.38841797    -5.53668066     1.84463411
  C   -12.08279001    -6.17744301     3.07439018
  C   -11.37311438    -7.40663725     3.07439018
  C   -10.97101189    -7.99170001     1.84463411
  C   -10.07778520    -9.09474310     1.84463411
  C    -9.58910928    -9.60970008     3.07439018
  C    -8.53432574   -10.55943144     3.07439018
  C    -7.97110921   -10.99160268     1.84463411
  C    -6.78074109   -11.76463678     1.84463411
  C    -6.15685221   -12.10338080     3.07439018
  C    -4.86021032   -12.68068297     3.07439018
  C    -4.19101131   -12.91765876     1.84463411
  C    -2.82002328   -13.28501390     1.84463411
  C    -2.12199204   -13.41438634     3.07439018
  C    -0.71041614   -13.56274895     3.07439018
  C    -0.00074051   -13.58133246     1.84463411
  C     1.41666557   -13.50704935     1.84463411
  C     2.12051101   -13.41438634     3.07439018
  C     3.50884604   -13.11928663     3.07439018
  C     4.18953029   -12.91765876     1.84463411
  C     5.51460883   -12.40900877     1.84463411
  C     6.15537119   -12.10338080     3.07439018
  C     7.38456543   -11.39370518     3.07439018
  C     7.96962818   -10.99160268     1.84463411
  C     9.07267128   -10.09837600     1.84463411
  C     9.58762825    -9.60970008     3.07439018
  C    10.53735962    -8.55491654     3.07439018
  C    10.96953086    -7.99170001     1.84463411
  C    11.74256496    -6.80133188     1.84463411
  C    12.08130898    -6.17744301     3.07439018
  C    12.65861114    -4.88080112     3.07439018
  C    12.89558694    -4.21160211     1.84463411
  C    13.26294208    -2.84061408     1.84463411
  C    13.39231452    -2.14258283     3.07439018
  C    13.54067713    -0.73100694     3.07439018
  C    13.55926064    -0.02133131     1.84463411
  C    13.48497753     1.39607477     1.84463411
  C    12.89558694     4.16893949     4.30414626
  C    12.38693694     5.49401804     4.30414626
  C    10.96953086     7.94903739     4.30414626
  C    10.07630418     9.05208048     4.30414626
  C     7.96962818    10.94894007     4.30414626
  C     6.77926006    11.72197416     4.30414626
  C     4.18953029    12.87499615     4.30414626
  C     2.81854225    13.24235128     4.30414626
  C    -0.00074051    13.53866984     4.30414626
  C    -1.41814660    13.46438674     4.30414626
  C    -4.19101131    12.87499615     4.30414626
  C    -5.51608986    12.36634615     4.30414626
  C    -7.97110921    10.94894007     4.30414626
  C    -9.07415231    10.05571338     4.30414626
  C   -10.97101189     7.94903739     4.30414626
  C   -11.74404599     6.75866927     4.30414626
  C   -12.89706797     4.16893949     4.30414626
  C   -13.26442311     2.79795146     4.30414626
  C   -13.56074167    -0.02133131     4.30414626
  C   -13.48645856    -1.43873739     4.30414626
  C   -12.89706797    -4.21160211     4.30414626
  C   -12.38841797    -5.53668066     4.30414626
  C   -10.97101189    -7.99170001     4.30414626
  C   -10.07778520    -9.09474310     4.30414626
  C    -7.97110921   -10.99160268     4.30414626
  C    -6.78074109   -11.76463678     4.30414626
  C    -4.19101131   -12.91765876     4.30414626
  C    -2.82002328   -13.28501390     4.30414626
  C    -0.00074051   -13.58133246     4.30414626
  C     1.41666557   -13.50704935     4.30414626
  C     4.18953029   -12.91765876     4.30414626
  C     5.51460883   -12.40900877     4.30414626
  C     7.96962818   -10.99160268     4.30414626
  C     9.07267128   -10.09837600     4.30414626
  C    10.96953086    -7.99170001     4.30414626
  C    11.74256496    -6.80133188     4.30414626
  C    12.89558694    -4.21160211     4.30414626
  C    13.26294208    -2.84061408     4.30414626
  C    13.55926064    -0.02133131     4.30414626
  C    13.48497753     1.39607477     4.30414626
  C    10.19891247     0.07305476    -1.19888117
  C    10.08775522     1.48335584    -1.08989197
  C    10.19541903     0.26179456    -3.65113810
  C    10.05818162     1.66979704    -3.54214890
  C    10.05024948     1.71631933     5.09524496
  C     9.71316240     3.09024704     5.20423416
  C    10.01637106     1.90202654     2.64298803
  C     9.65391563     3.26948080     2.75197722
  C     9.97906171     2.08707500     0.19073109
  C     9.59136209     3.44758743     0.29972029
  C     9.93833423     2.27140131    -2.26152584
  C     9.52552320     3.62450594    -2.15253664
  C     9.89420256     2.45494235    -4.71378277
  C     9.45642151     3.80017573    -4.60479357
  C     9.43863903     3.84389100     4.03260029
  C     8.81306662     5.11273467     4.14158949
  C     9.36549225     4.01791533     1.58034336
  C     8.71654561     5.27496479     1.68933255
  C     9.28913749     4.19055620    -0.87191358
  C     8.61703887     5.43538090    -0.76292438
  C     9.20960089     4.36175447    -3.32417051
  C     8.51458050     5.59392805    -3.21518131
  C     8.48850881     5.63326644     5.42221255
  C     8.38241035     5.78940111     2.96995562
  C     7.49781864     6.89339503     3.07894482
  C     8.27344062     5.94354557     0.51769869
  C     7.36856975     7.03098007     0.62668788
  C     8.16163694     6.09564703    -1.93455825
  C     7.23679684     7.16614966    -1.82556905
  C     8.04703759     6.24565339    -4.38681518
  C     7.10254503     7.29885750    -4.27782598
  C     7.06860012     7.33164446     4.35956788
  C     5.98326185     8.23902857     4.46855708
  C     6.93131445     7.46121129     1.90731095
  C     5.82936989     8.34835461     2.01630014
  C     6.79165451     7.58821530    -0.54494598
  C     5.67348108     8.45481398    -0.43595679
  C     6.64966813     7.71261300    -2.99720292
  C     5.51564882     8.55837022    -2.88821372
  C     6.50540395     7.83436178    -5.44945985
  C     5.35592717     8.65898787    -5.34047065
  C     5.31570793     8.68367906     3.29692321
  C     4.06016311     9.33553202     3.40591241
  C     5.15370154     8.78057512     0.84466628
  C     3.88630846     9.40908119     0.95365547
  C     4.98992972     8.87445648    -1.60759066
  C     3.71112248     9.47940039    -1.49860146
  C     4.82444856     8.96529097    -4.05984759
  C     3.53466516     9.54646553    -3.95085839
  C     3.49035926     9.56272065     4.68653547
  C     2.13074737     9.95356664     4.79552467
  C     3.31239782     9.62568606     2.23427854
  C     1.94578572     9.99130397     2.34326774
  C     3.13330160     9.68534730    -0.21797839
  C     1.76015738    10.02561192    -0.10898920
  C     2.95313196     9.74168396    -2.67023533
  C     1.57392591    10.05647874    -2.56124613
  C     2.77195060     9.79467672    -5.12249226
  C     1.38715512    10.08389384    -5.01350306
  C     1.34038564    10.09020717     3.62389080
  C    -0.07153051    10.17851273     3.73288000
  C     1.15303066    10.11329457     1.17163387
  C    -0.26027789    10.17545593     1.28062307
  C     0.96528050    10.13291081    -1.28062306
  C    -0.44893638    10.16890667    -1.17163387
  C     0.77719948    10.14904917    -3.73288000
  C    -0.63744135    10.15886720    -3.62389080
  C    -0.68453605    10.15581236     5.01350306
  C    -2.08605396     9.96332179     5.12249226
  C    -0.87275835    10.14141510     2.56124613
  C    -2.27047400     9.92302084     2.67023533
  C    -1.06068199    10.12353704     0.10898920
  C    -2.45411664     9.87931389     0.21797839
  C    -1.24824259    10.10218430    -2.34326774
  C    -2.63691899     9.83221591    -2.23427854
  C    -1.43537591    10.07736420    -4.79552467
  C    -2.81881843     9.78174303    -4.68653547
  C    -2.86414490     9.76859949     3.95085839
  C    -4.19112560     9.27826559     4.05984759
  C    -3.04482814     9.71393244     1.49860146
  C    -4.36250741     9.19912526     1.60759066
  C    -3.22446876     9.65593100    -0.95365547
  C    -4.53239529     9.11682686    -0.84466628
  C    -3.40300523     9.59461505    -3.40591241
  C    -4.70073105     9.03139859    -3.29692321
  C    -4.74256570     9.00955589     5.34047065
  C    -5.94645999     8.26662680     5.44945985
  C    -4.90888030     8.92025655     2.88821372
  C    -6.09881969     8.15517528     2.99720292
  C    -5.07351384     8.82789467     0.43595679
  C    -6.24909076     8.04092327     0.54494599
  C    -5.23640992     8.73250188    -2.01630014
  C    -6.39722174     7.92390989    -1.90731095
  C    -5.39751276     8.63411085    -4.46855708
  C    -6.54316188     7.80417521    -4.35956788
  C    -6.57929873     7.77382113     4.27782598
  C    -7.59455327     6.78864942     4.38681518
  C    -6.72243013     7.65074262     1.82556905
  C    -7.71927910     6.64695121     1.93455825
  C    -6.86325932     7.52503638    -0.62668788
  C    -7.84136130     6.50296907    -0.51769869
  C    -7.00173805     7.39674547    -3.07894482
  C    -7.96075803     6.35675232    -2.96995562
  C    -8.07742842     6.20835104    -5.42221255
  C    -8.10616532     6.17091533     3.21518131
  C    -8.88495911     4.98990503     3.32417051
  C    -8.21937168     6.01985495     0.76292438
  C    -8.97617618     4.82463446     0.87191358
  C    -8.32976311     5.86672543    -1.68933255
  C    -9.06431912     4.65770411    -1.58034336
  C    -8.43730181     5.71157922    -4.14158949
  C    -9.14935773     4.48917117    -4.03260029
  C    -9.17012890     4.44679428     4.60479357
  C    -9.70014288     3.13515780     4.71378277
  C    -9.25124627     4.27633933     2.15253664
  C    -9.75689618     2.95511897     2.26152584
  C    -9.32919529     4.10441240    -0.29972029
  C    -9.81030795     2.77406069    -0.19073109
  C    -9.40394926     3.93107239    -2.75197722
  C    -9.86035988     2.59204497    -2.64298803
  C    -9.47548258     3.75637865    -5.20423416
  C    -9.90703484     2.40913416    -5.09524496
  C    -9.91817403     2.36327393     3.54214890
  C   -10.15272068     0.96817789     3.65113810
  C    -9.96060542     2.17933237     1.08989197
  C   -10.16929409     0.78013471     1.19888117
  C    -9.99962551     1.99463708    -1.36236496
  C   -10.18238472     0.59181701    -1.25337577
  C   -10.03522092     1.80925131    -3.81462189
  C   -10.19198808     0.40328931    -3.70563270
  C   -10.19384362     0.35613214     4.93176117
  C   -10.14803378    -1.05780086     5.04075036
  C   -10.19908341     0.16743274     2.47950423
  C   -10.12711500    -1.24541036     2.58849343
  C   -10.20083020    -0.02133131     0.02724730
  C   -10.10272788    -1.43260060     0.13623650
  C   -10.19908341    -0.21009536    -2.42500963
  C   -10.07488077    -1.61930747    -2.31602044
  C   -10.19384362    -0.39879476    -4.87726657
  C   -10.04358321    -1.80546703    -4.76827737
  C   -10.03522092    -1.85191393     3.86911649
  C    -9.68543469    -3.22266360     3.97810569
  C    -9.99962551    -2.03729970     1.41685956
  C    -9.62453193    -3.40134144     1.52584876
  C    -9.96060542    -2.22199499    -1.03539737
  C    -9.56033296    -3.57886162    -0.92640817
  C    -9.91817403    -2.40593654    -3.48765430
  C    -9.49285978    -3.75516331    -3.37866511
  C    -9.47548258    -3.79904126     5.25872876
  C    -8.86167814    -5.07361931     5.36771795
  C    -9.40394926    -3.97373500     2.80647182
  C    -8.76666245    -5.23673564     2.91546102
  C    -9.32919529    -4.14707502     0.35421489
  C    -8.66864438    -5.39806566     0.46320409
  C    -9.25124627    -4.31900195    -2.09804204
  C    -8.56765750    -5.55755412    -1.98905284
  C    -9.17012890    -4.48945690    -4.55029897
  C    -8.46373641    -5.71514639    -4.44130978
  C    -8.43730181    -5.75424184     4.19608409
  C    -7.56296373    -6.86637402     4.30507328
  C    -8.32976311    -5.90938805     1.74382715
  C    -7.43499351    -7.00514918     1.85281635
  C    -8.21937168    -6.06251757    -0.70842978
  C    -7.30447703    -7.14153233    -0.59944058
  C    -8.10616532    -6.21357795    -3.16068671
  C    -7.17145897    -7.27547678    -3.05169752
  C    -7.00173805    -7.43940809     3.13343941
  C    -5.90804982    -8.33671022     3.24242861
  C    -6.86325932    -7.56769900     0.68118248
  C    -5.75315280    -8.44460755     0.79017168
  C    -6.72243013    -7.69340524    -1.77107445
  C    -5.59628555    -8.54961985    -1.66208525
  C    -6.57929873    -7.81648375    -4.22333138
  C    -5.43750179    -8.65171116    -4.11434219
  C    -5.39751276    -8.67677347     4.52305168
  C    -4.14805358    -9.34021665     4.63204087
  C    -5.23640992    -8.77516450     2.07079474
  C    -3.97488696    -9.41537142     2.17978394
  C    -5.07351384    -8.87055729    -0.38146219
  C    -3.80035918    -9.48730868    -0.27247299
  C    -4.90888030    -8.96291917    -2.83371912
  C    -3.62453000    -9.55600380    -2.72472993
  C    -4.74256570    -9.05221850    -5.28597606
  C    -3.44745965    -9.62143323    -5.17698686
  C    -3.40300523    -9.63727767     3.46040701
  C    -2.03983488   -10.01552582     3.56939620
  C    -3.22446876    -9.69859362     1.00815007
  C    -1.85453195   -10.05155000     1.11713927
  C    -3.04482814    -9.75659505    -1.44410686
  C    -1.66859408   -10.08413878    -1.33511766
  C    -2.86414490    -9.81126210    -3.89636379
  C    -1.48208497   -10.11328099    -3.78737460
  C    -1.43537591   -10.12002682     4.85001927
  C    -0.02433735   -10.22139370     4.95900846
  C    -1.24824259   -10.14484692     2.39776233
  C     0.16443024   -10.22008360     2.50675153
  C    -1.06068199   -10.16619965    -0.05449460
  C     0.35314125   -10.21528036     0.05449460
  C    -0.87275835   -10.18407772    -2.50675153
  C     0.54173106   -10.20698564    -2.39776233
  C    -0.68453605   -10.19847498    -4.95900846
  C     0.73013507   -10.19520228    -4.85001927
  C     0.77719948   -10.19171178     3.78737460
  C     2.17687618    -9.98626057     3.89636379
  C     0.96528050   -10.17557343     1.33511766
  C     2.36091540    -9.94425482     1.44410686
  C     1.15303066   -10.15595719    -1.11713927
  C     2.54414574    -9.89885041    -1.00815007
  C     1.34038564   -10.13286978    -3.56939620
  C     2.72650445    -9.85006289    -3.46040701
  C     2.77195060    -9.83733934     5.17698686
  C     4.10341176    -9.35930559     5.28597605
  C     2.95313196    -9.78434657     2.72472992
  C     4.27551856    -9.28175452     2.83371912
  C     3.13330160    -9.72800992     0.27247299
  C     4.44616071    -9.20103170     0.38146219
  C     3.31239782    -9.66834867    -2.17978394
  C     4.61527977    -9.11716477    -2.07079474
  C     3.49035926    -9.60538327    -4.63204087
  C     4.78281782    -9.03018247    -4.52305168
  C     4.82444856    -9.00795359     4.11434219
  C     6.02141664    -8.25391613     4.22333138
  C     4.98992972    -8.91711909     1.66208525
  C     6.17273851    -8.14105953     1.77107445
  C     5.15370154    -8.82323774    -0.79017168
  C     6.32194592    -8.02542188    -0.68118248
  C     5.31570793    -8.72634168    -3.24242861
  C     6.46898778    -7.90704279    -3.13343942
  C     6.64966813    -7.75527561     3.05169752
  C     7.65576296    -6.76075147     3.16068671
  C     6.79165451    -7.63087791     0.59944058
  C     7.77917226    -6.61790518     0.70842978
  C     6.93131445    -7.50387390    -1.85281635
  C     7.89991690    -6.47279952    -1.74382715
  C     7.06860012    -7.37430708    -4.30507328
  C     8.01795551    -6.32548420    -4.19608409
  C     8.04703759    -6.28831601     4.44130978
  C     8.83672646    -5.11456281     4.55029897
  C     8.16163694    -6.13830965     1.98905284
  C     8.92946896    -4.95014339     2.09804204
  C     8.27344062    -5.98620819    -0.46320409
  C     9.01915280    -4.78403581    -0.35421489
  C     8.38241035    -5.83206373    -2.91546102
  C     9.10574729    -4.61629699    -2.80647182
  C     8.48850881    -5.67592905    -5.36771795
  C     9.18922275    -4.44698436    -5.25872876
  C     9.20960089    -4.40441708     3.37866511
  C     9.72745500    -3.08793230     3.48765430
  C     9.28913749    -4.23321881     0.92640817
  C     9.78253990    -2.90737601     1.03539737
  C     9.36549225    -4.06057795    -1.52584876
  C     9.83427397    -2.72583124    -1.41685956
  C     9.43863903    -3.88655362    -3.97810569
  C     9.88263948    -2.54336016    -3.86911650
  C     9.89420256    -2.49760497     4.76827737
  C    10.14164862    -1.10473903     4.87726656
  C     9.93833423    -2.31406393     2.31602044
  C    10.15996138    -0.91685726     2.42500963
  C     9.97906171    -2.12973761    -0.13623650
  C    10.17479404    -0.72866876    -0.02724730
  C    10.01637106    -1.94468916    -2.58849343
  C    10.18614152    -0.54023800    -2.47950423
  C    10.05024948    -1.75898194    -5.04075036
  C    10.19399993    -0.35162950    -4.93176117
  C    10.19541903    -0.30445718     3.70563270
  C    10.13652738     1.10899139     3.81462189
  C    10.19891247    -0.11571737     1.25337576
  C    10.11387346     1.29639928     1.36236496
  C     6.80099939     0.54227693     4.56078479
  C     6.54057585     1.92610295     4.72366996
  C     6.77189796     0.82287720     2.11750722
  C     6.45451031     2.19475910     2.28039239
  C     6.73122560     1.10203515    -0.32577034
  C     6.35741609     2.45962910    -0.16288517
  C     6.67905178     1.37927385    -2.76904791
  C     6.24945906     2.72026041    -2.60616274
  C     6.61546565     1.65411964    -5.21232547
  C     6.13082367     2.97620777    -5.04944030
  C     6.24945906     2.72026041     3.58347376
  C     5.55381841     3.94454754     3.74635893
  C     6.13082367     2.97620777     1.14019620
  C     5.38518364     4.17070172     1.30308137
  C     6.00171261     3.22703388    -1.30308137
  C     5.20734710     4.38969389    -1.14019620
  C     5.86234646     3.47231021    -3.74635893
  C     5.02061263     4.60114990    -3.58347376
  C     5.20734710     4.38969389     5.04944030
  C     4.19129252     5.36459284     5.21232547
  C     5.02061263     4.60114990     2.60616274
  C     3.96513833     5.53322762     2.76904791
  C     4.82529927     4.80470847     0.16288517
  C     3.73220851     5.69237253     0.32577034
  C     4.62174069     5.00002184    -2.28039239
  C     3.49290101     5.84175566    -2.11750722
  C     4.41028469     5.18675630    -4.72366996
  C     3.24762467     5.98112182    -4.56078479
  C     3.49290101     5.84175566     4.07212928
  C     2.21534989     6.43391952     4.23501445
  C     3.24762467     5.98112182     1.62885171
  C     1.94669374     6.51998505     1.79173688
  C     2.99679856     6.11023288    -0.81442586
  C     1.67471043     6.59487486    -0.65154068
  C     2.74085121     6.22886827    -3.25770342
  C     1.39986464     6.65846099    -3.09481825
  C     1.39986464     6.65846099     3.09481825
  C    -0.00074051     6.80371960     3.25770342
  C     1.12262594     6.71063480     0.65154068
  C    -0.28278557     6.79788936     0.81442586
  C     0.84346799     6.75130717    -1.79173688
  C    -0.56434875     6.78040859    -1.62885171
  C     0.56286772     6.78040859    -4.23501445
  C    -0.84494902     6.75130717    -4.07212928
  C    -0.56434875     6.78040859     4.56078479
  C    -1.94817477     6.51998505     4.72366996
  C    -0.84494902     6.75130717     2.11750722
  C    -2.21683092     6.43391952     2.28039239
  C    -1.12410697     6.71063480    -0.32577034
  C    -2.48170092     6.33682529    -0.16288517
  C    -1.40134567     6.65846099    -2.76904791
  C    -2.74233224     6.22886827    -2.60616274
  C    -1.67619146     6.59487486    -5.21232547
  C    -2.99827959     6.11023288    -5.04944030
  C    -2.74233224     6.22886827     3.58347376
  C    -3.96661936     5.53322762     3.74635893
  C    -2.99827959     6.11023288     1.14019620
  C    -4.19277355     5.36459284     1.30308137
  C    -3.24910570     5.98112182    -1.30308137
  C    -4.41176571     5.18675630    -1.14019620
  C    -3.49438203     5.84175566    -3.74635893
  C    -4.62322172     5.00002184    -3.58347376
  C    -4.41176571     5.18675630     5.04944030
  C    -5.38666466     4.17070172     5.21232547
  C    -4.62322172     5.00002184     2.60616274
  C    -5.55529944     3.94454754     2.76904791
  C    -4.82678029     4.80470847     0.16288517
  C    -5.71444435     3.71161772     0.32577034
  C    -5.02209366     4.60114990    -2.28039239
  C    -5.86382749     3.47231021    -2.11750722
  C    -5.20882813     4.38969389    -4.72366996
  C    -6.00319364     3.22703388    -4.56078479
  C    -5.86382749     3.47231021     4.07212928
  C    -6.45599134     2.19475910     4.23501445
  C    -6.00319364     3.22703388     1.62885171
  C    -6.54205687     1.92610295     1.79173688
  C    -6.13230470     2.97620777    -0.81442586
  C    -6.61694668     1.65411964    -0.65154068
  C    -6.25094009     2.72026041    -3.25770342
  C    -6.68053281     1.37927385    -3.09481825
  C    -6.68053281     1.37927385     3.09481825
  C    -6.82579142    -0.02133131     3.25770342
  C    -6.73270662     1.10203515     0.65154068
  C    -6.81996118    -0.30337636     0.81442586
  C    -6.77337899     0.82287720    -1.79173688
  C    -6.80248041    -0.58493955    -1.62885171
  C    -6.80248041     0.54227693    -4.23501445
  C    -6.77337899    -0.86553981    -4.07212928
  C    -6.80248041    -0.58493955     4.56078479
  C    -6.54205687    -1.96876557     4.72366996
  C    -6.77337899    -0.86553981     2.11750722
  C    -6.45599134    -2.23742172     2.28039239
  C    -6.73270662    -1.14469777    -0.32577034
  C    -6.35889712    -2.50229171    -0.16288517
  C    -6.68053281    -1.42193647    -2.76904791
  C    -6.25094009    -2.76292303    -2.60616274
  C    -6.61694668    -1.69678226    -5.21232547
  C    -6.13230470    -3.01887039    -5.04944030
  C    -6.25094009    -2.76292303     3.58347376
  C    -5.55529944    -3.98721016     3.74635893
  C    -6.13230470    -3.01887039     1.14019620
  C    -5.38666466    -4.21336434     1.30308137
  C    -6.00319364    -3.26969650    -1.30308137
  C    -5.20882813    -4.43235651    -1.14019620
  C    -5.86382749    -3.51497283    -3.74635893
  C    -5.02209366    -4.64381251    -3.58347376
  C    -5.20882813    -4.43235651     5.04944030
  C    -4.19277355    -5.40725546     5.21232547
  C    -5.02209366    -4.64381251     2.60616274
  C    -3.96661936    -5.57589024     2.76904791
  C    -4.82678029    -4.84737109     0.16288517
  C    -3.73368954    -5.73503514     0.32577034
  C    -4.62322172    -5.04268445    -2.28039239
  C    -3.49438203    -5.88441828    -2.11750722
  C    -4.41176571    -5.22941892    -4.72366996
  C    -3.24910570    -6.02378443    -4.56078479
  C    -3.49438203    -5.88441828     4.07212928
  C    -2.21683092    -6.47658213     4.23501445
  C    -3.24910570    -6.02378443     1.62885171
  C    -1.94817477    -6.56264767     1.79173688
  C    -2.99827959    -6.15289550    -0.81442586
  C    -1.67619146    -6.63753747    -0.65154068
  C    -2.74233224    -6.27153088    -3.25770342
  C    -1.40134567    -6.70112360    -3.09481825
  C    -1.40134567    -6.70112360     3.09481825
  C    -0.00074051    -6.84638222     3.25770342
  C    -1.12410697    -6.75329742     0.65154068
  C     0.28130454    -6.84055197     0.81442586
  C    -0.84494902    -6.79396978    -1.79173688
  C     0.56286772    -6.82307121    -1.62885171
  C    -0.56434875    -6.82307121    -4.23501445
  C     0.84346799    -6.79396978    -4.07212928
  C     0.56286772    -6.82307121     4.56078479
  C     1.94669374    -6.56264767     4.72366996
  C     0.84346799    -6.79396978     2.11750722
  C     2.21534989    -6.47658213     2.28039239
  C     1.12262594    -6.75329742    -0.32577034
  C     2.48021989    -6.37948791    -0.16288517
  C     1.39986464    -6.70112360    -2.76904791
  C     2.74085121    -6.27153088    -2.60616274
  C     1.67471043    -6.63753747    -5.21232547
  C     2.99679856    -6.15289550    -5.04944030
  C     2.74085121    -6.27153088     3.58347376
  C     3.96513833    -5.57589024     3.74635893
  C     2.99679856    -6.15289550     1.14019620
  C     4.19129252    -5.40725546     1.30308137
  C     3.24762467    -6.02378443    -1.30308137
  C     4.41028469    -5.22941892    -1.14019620
  C     3.49290101    -5.88441828    -3.74635893
  C     4.62174069    -5.04268445    -3.58347376
  C     4.41028469    -5.22941892     5.04944030
  C     5.38518364    -4.21336434     5.21232547
  C     4.62174069    -5.04268445     2.60616274
  C     5.55381841    -3.98721016     2.76904791
  C     4.82529927    -4.84737109     0.16288517
  C     5.71296332    -3.75428033     0.32577034
  C     5.02061263    -4.64381251    -2.28039239
  C     5.86234646    -3.51497283    -2.11750722
  C     5.20734710    -4.43235651    -4.72366996
  C     6.00171261    -3.26969650    -4.56078479
  C     5.86234646    -3.51497283     4.07212928
  C     6.45451031    -2.23742172     4.23501445
  C     6.00171261    -3.26969650     1.62885171
  C     6.54057585    -1.96876557     1.79173688
  C     6.13082367    -3.01887039    -0.81442586
  C     6.61546565    -1.69678226    -0.65154068
  C     6.24945906    -2.76292303    -3.25770342
  C     6.67905178    -1.42193647    -3.09481825
  C     6.67905178    -1.42193647     3.09481825
  C     6.82431040    -0.02133131     3.25770342
  C     6.73122560    -1.14469777     0.65154068
  C     6.81848015     0.26071374     0.81442586
  C     6.77189796    -0.86553981    -1.79173688
  C     6.80099939     0.54227693    -1.62885171
  C     6.80099939    -0.58493955    -4.23501445
  C     6.77189796     0.82287720    -4.07212928
